@<TRIPOS>MOLECULE
UNK
   18    17     1     0     0
SMALL
bcc


@<TRIPOS>ATOM
      1 O1x         -3.0200     1.0620     0.3620 oh         1 UNK      -0.596300
      2 C1x         -2.0570     0.0340     0.2930 c3         1 UNK       0.112400
      3 C2x         -0.9540     0.4120    -0.6940 c3         1 UNK       0.119300
      4 N1x          0.0590    -0.5320    -0.8470 n7         1 UNK      -0.827200
      5 C3x          0.9790    -0.8610     0.1290 c3         1 UNK       0.119300
      6 C4x          2.0010     0.1270     0.5460 c3         1 UNK       0.112400
      7 O2x          2.8140     0.5060    -0.5230 oh         1 UNK      -0.596300
      8 H1x         -3.4130     1.1300    -0.5590 ho         1 UNK       0.405000
      9 H2x         -2.5210    -0.9440     0.0450 h1         1 UNK       0.045200
     10 H3x         -1.6760    -0.0860     1.3290 h1         1 UNK       0.045200
     11 H4x         -1.4790     0.4760    -1.6910 h1         1 UNK       0.049950
     12 H5x         -0.6800     1.4360    -0.4600 h1         1 UNK       0.049950
     13 H6x         -0.0740    -1.2750    -1.5360 hn         1 UNK       0.365800
     14 H7x          1.5680    -1.7510    -0.2390 h1         1 UNK       0.049950
     15 H8x          0.4650    -1.2690     1.0340 h1         1 UNK       0.049950
     16 H9x          1.6370     1.0690     0.9810 h1         1 UNK       0.045200
     17 H10x         2.6770    -0.3320     1.2990 h1         1 UNK       0.045200
     18 H11x         3.6740     0.7990    -0.1280 ho         1 UNK       0.405000
@<TRIPOS>BOND
     1     1     2 1   
     2     2     3 1   
     3     3     4 1   
     4     4     5 1   
     5     5     6 1   
     6     6     7 1   
     7     1     8 1   
     8     2     9 1   
     9     2    10 1   
    10     3    11 1   
    11     3    12 1   
    12     4    13 1   
    13     5    14 1   
    14     5    15 1   
    15     6    16 1   
    16     6    17 1   
    17     7    18 1   
@<TRIPOS>SUBSTRUCTURE
     1 UNK         1 TEMP              0 ****  ****    0 ROOT
