@<TRIPOS>MOLECULE
UNK
18 17 1 0 1
SMALL
USER_CHARGES
@<TRIPOS>ATOM
       1 O1x         -3.0202     1.0619     0.3624 O1            1 UNK       -0.395054
       2 C1x         -2.0566     0.0337     0.2930 C1            1 UNK        0.055545
       3 C2x         -0.9536     0.4122    -0.6944 C1            1 UNK        0.018500
       4 N1x          0.0593    -0.5325    -0.8472 N1            1 UNK       -0.312171
       5 C3x          0.9790    -0.8609     0.1294 C1            1 UNK        0.018500
       6 C4x          2.0010     0.1269     0.5461 C1            1 UNK        0.055545
       7 O2x          2.8138     0.5061    -0.5231 O1            1 UNK       -0.395054
       8 H1x         -3.4133     1.1299    -0.5594 H1            1 UNK        0.210103
       9 H2x         -2.5211    -0.9444     0.0452 H2            1 UNK        0.057717
      10 H3x         -1.6756    -0.0855     1.3290 H2            1 UNK        0.057717
      11 H4x         -1.4787     0.4762    -1.6912 H2            1 UNK        0.045183
      12 H5x         -0.6800     1.4358    -0.4601 H2            1 UNK        0.045183
      13 H6x         -0.0742    -1.2752    -1.5355 H3            1 UNK        0.122384
      14 H7x          1.5677    -1.7513    -0.2389 H2            1 UNK        0.045183
      15 H8x          0.4649    -1.2690     1.0343 H2            1 UNK        0.045183
      16 H9x          1.6372     1.0685     0.9808 H2            1 UNK        0.057717
      17 H10x         2.6766    -0.3317     1.2989 H2            1 UNK        0.057717
      18 H11x         3.6735     0.7992    -0.1275 H1            1 UNK        0.210103
@<TRIPOS>BOND
       1        1        2 1
       2        2        3 1
       3        3        4 1
       4        4        5 1
       5        5        6 1
       6        6        7 1
       7        1        8 1
       8        2        9 1
       9        2       10 1
      10        3       11 1
      11        3       12 1
      12        4       13 1
      13        5       14 1
      14        5       15 1
      15        6       16 1
      16        6       17 1
      17        7       18 1
@<TRIPOS>SUBSTRUCTURE
       1 UNK             1 RESIDUE    0 **** ROOT      0
