@<TRIPOS>MOLECULE
UNK
   14    13     1     0     0
SMALL
bcc


@<TRIPOS>ATOM
      1 O1x         -1.3440    -1.3060     0.1900 oh         1 UNK      -0.609300
      2 C1x         -1.1990    -0.1950    -0.6410 c3         1 UNK       0.098400
      3 C2x         -0.1380     0.7070    -0.0840 c3         1 UNK       0.063100
      4 O2x         -0.4650     1.1460     1.1840 oh         1 UNK      -0.601800
      5 C3x          1.2370     0.0760    -0.1350 c3         1 UNK       0.098400
      6 O3x          1.3280    -1.0310     0.7140 oh         1 UNK      -0.609300
      7 H1x         -2.0740    -1.1600     0.8180 ho         1 UNK       0.416500
      8 H2x         -2.1350     0.4110    -0.7020 h1         1 UNK       0.056950
      9 H3x         -0.9680    -0.4990    -1.6680 h1         1 UNK       0.056950
     10 H4x         -0.0720     1.6230    -0.7290 h1         1 UNK       0.081700
     11 H5x          0.3630     1.3130     1.7300 ho         1 UNK       0.418000
     12 H6x          2.0020     0.7980     0.2090 h1         1 UNK       0.056950
     13 H7x          1.4740    -0.2340    -1.1710 h1         1 UNK       0.056950
     14 H8x          1.9900    -1.6510     0.2860 ho         1 UNK       0.416500
@<TRIPOS>BOND
     1     1     2 1   
     2     2     3 1   
     3     3     4 1   
     4     3     5 1   
     5     5     6 1   
     6     1     7 1   
     7     2     8 1   
     8     2     9 1   
     9     3    10 1   
    10     4    11 1   
    11     5    12 1   
    12     5    13 1   
    13     6    14 1   
@<TRIPOS>SUBSTRUCTURE
     1 UNK         1 TEMP              0 ****  ****    0 ROOT
