@<TRIPOS>MOLECULE
UNK
14 13 1 0 1
SMALL
USER_CHARGES
@<TRIPOS>ATOM
       1 O1x         -1.3442    -1.3056     0.1895 O1            1 UNK       -0.393593
       2 C1x         -1.1993    -0.1946    -0.6411 C1            1 UNK        0.071332
       3 C2x         -0.1380     0.7074    -0.0837 C1            1 UNK        0.100047
       4 O2x         -0.4645     1.1457     1.1836 O1            1 UNK       -0.388330
       5 C3x          1.2373     0.0763    -0.1354 C1            1 UNK        0.071332
       6 O3x          1.3277    -1.0307     0.7138 O1            1 UNK       -0.393593
       7 H1x         -2.0741    -1.1597     0.8183 H1            1 UNK        0.210173
       8 H2x         -2.1354     0.4110    -0.7020 H2            1 UNK        0.059207
       9 H3x         -0.9675    -0.4990    -1.6681 H2            1 UNK        0.059207
      10 H4x         -0.0716     1.6228    -0.7292 H2            1 UNK        0.064947
      11 H5x          0.3626     1.3133     1.7300 H1            1 UNK        0.210685
      12 H6x          2.0025     0.7983     0.2090 H2            1 UNK        0.059207
      13 H7x          1.4740    -0.2343    -1.1712 H2            1 UNK        0.059207
      14 H8x          1.9905    -1.6511     0.2865 H1            1 UNK        0.210173
@<TRIPOS>BOND
       1        1        2 1
       2        2        3 1
       3        3        4 1
       4        3        5 1
       5        5        6 1
       6        1        7 1
       7        2        8 1
       8        2        9 1
       9        3       10 1
      10        4       11 1
      11        5       12 1
      12        5       13 1
      13        6       14 1
@<TRIPOS>SUBSTRUCTURE
       1 UNK             1 RESIDUE    0 **** ROOT      0
